/*--------------------------------*- C++ -*----------------------------------*\
=========                 |
\\      /  F ield         | OpenFOAM: The Open Source CFD Toolbox
\\    /   O peration     | Website:  https://openfoam.org
\\  /    A nd           | Version:  7
\\/     M anipulation  |
\*---------------------------------------------------------------------------*/
FoamFile
{
  version     2.0;
  format      ascii;
  class       volVectorField;
  location    "0";
  object      U;
}
// * * * * * * * * * * * * * * * * * * * * * * * * * * * * * * * * * * * * * //
#includeIfPresent "../parameters.dat"

dimensions      [0 1 -1 0 0 0 0];

internalField   uniform (0 0 0);

boundaryField
{

  upperWall
  {

    //type slip;
    type fixedValue;
    value uniform (0 0 $u_max);
  }

  lowerWall
  {
    type            noSlip;
  }



  leftWall
  {
    // type fixedValue;
    // value uniform ($u_max 0 0);
    type zeroGradient;
    //type slip;
  }


  rightWall
  {
    // type inletOutlet;
    // inletValue uniform (0 0 0);
    // value uniform (0 0 0);
    //type slip;
    type zeroGradient;
  }


  frontWall
  {
    type zeroGradient;
  }

  backWall
  {
    type inletOutlet;
    inletValue uniform (0 0 0);
    value uniform (0 0 0);
  }


  defaultFaces
  {
    type            empty;
  }
}


// ************************************************************************* //
